Circuit: * F:\lt_spice\elec2_proj\Draft1.asc

Direct Newton iteration for .op point succeeded.

Date: Sat Jul 05 00:24:39 2025
Total elapsed time: 0.048 seconds.

tnom = 27
temp = 27
method = modified trap
totiter = 2395
traniter = 2377
tranpoints = 1024
accept = 1024
rejected = 0
matrix size = 7
fillins = 0
solver = Normal
Matrix Compiler1: 304 bytes object code size  0.1/0.0/[0.0]
Matrix Compiler2: 465 bytes object code size  0.1/0.1/[0.1]

