Circuit: * F:\lt_spice\elec2_proj\3-7\Draft2.asc

Instance "m2": Length shorter than recommended for a level 1 MOSFET.
Direct Newton iteration for .op point succeeded.

Date: Sat Jul 05 19:40:15 2025
Total elapsed time: 0.151 seconds.

tnom = 27
temp = 27
method = modified trap
totiter = 778
traniter = 766
tranpoints = 384
accept = 328
rejected = 56
matrix size = 10
fillins = 0
solver = Normal
Matrix Compiler1: 328 bytes object code size  0.2/0.1/[0.1]
Matrix Compiler2: 720 bytes object code size  0.1/0.2/[0.1]

