Circuit: * F:\lt_spice\elec2_proj\3-7\Draft1.asc

Instance "m2": Length shorter than recommended for a level 1 MOSFET.
Instance "m1": Length shorter than recommended for a level 1 MOSFET.
Instance "m4": Length shorter than recommended for a level 1 MOSFET.
Instance "m3": Length shorter than recommended for a level 1 MOSFET.
Direct Newton iteration for .op point succeeded.
N-Period=1
Fourier components of V(n007)
DC component:1.34947

Harmonic	Frequency	 Fourier 	Normalized	 Phase  	Normalized
 Number 	  [Hz]   	Component	 Component	[degree]	Phase [deg]
    1   	1.000e+01	6.625e+00	1.000e+00	    3.60°	    0.00°
    2   	2.000e+01	8.669e-01	1.308e-01	  -82.79°	  -86.39°
    3   	3.000e+01	8.260e-02	1.247e-02	   10.52°	    6.92°
    4   	4.000e+01	2.485e-01	3.751e-02	  -75.73°	  -79.33°
    5   	5.000e+01	4.499e-02	6.791e-03	 -162.69°	 -166.29°
    6   	6.000e+01	4.492e-02	6.781e-03	  -67.00°	  -70.60°
    7   	7.000e+01	1.984e-02	2.995e-03	   25.51°	   21.91°
    8   	8.000e+01	4.829e-02	7.288e-03	  -62.73°	  -66.33°
    9   	9.000e+01	1.701e-03	2.568e-04	   33.87°	   30.26°
Total Harmonic Distortion: 13.724988%(13.737676%)



Date: Fri Jul 11 18:14:00 2025
Total elapsed time: 7.333 seconds.

tnom = 27
temp = 27
method = modified trap
totiter = 201111
traniter = 201072
tranpoints = 100221
accept = 100120
rejected = 101
matrix size = 29
fillins = 30
solver = Normal
Matrix Compiler1: 4.08 KB object code size  1.1/0.7/[0.5]
Matrix Compiler2: off  [0.5]/0.7/0.6

